Circuit: * D:\EE\Semestre 8\Circuitos integrados lineares\Projeto II\Draft4.asc

WARNING: Less than two connections to node VEE.  This node is used by V4.
Direct Newton iteration for .op point succeeded.

Date: Sat Jan 20 22:37:24 2024
Total elapsed time: 0.105 seconds.

tnom = 27
temp = 27
method = modified trap
totiter = 2089
traniter = 2082
tranpoints = 1042
accept = 1042
rejected = 0
matrix size = 14
fillins = 0
solver = Normal
Matrix Compiler1: 500 bytes object code size  0.1/0.1/[0.1]
Matrix Compiler2: off  [0.1]/0.1/0.1

