Circuit: * D:\EE\Semestre 8\Circuitos integrados lineares\Projeto II\Draft1.asc

WARNING: Node N003 is floating.
WARNING: Node N001 is floating.

WARNING: Less than two connections to node VCC.  This node is used by R1.
Direct Newton iteration failed to find .op point.  (Use ".option noopiter" to skip.)
Starting Gmin stepping
Gmin = 10
Gmin = 1.07374
Gmin = 0.115292
Gmin = 0.0123794
Gmin = 0.00132923
Gmin = 0.000142725
Gmin = 1.5325e-005
Gmin = 1.6455e-006
Gmin = 1.76685e-007
Gmin = 1.89714e-008
Gmin = 2.03704e-009
Gmin = 2.18725e-010
Gmin = 2.34854e-011
Gmin = 2.52173e-012
vernier = 0.5
vernier = 0.25
Gmin = 7.31965e-013
vernier = 0.333333
vernier = 0.166667
vernier = 0.0833333
Gmin = 5.29513e-013
vernier = 0.0416667
vernier = 0.0208333
vernier = 0.0104167
vernier = 0.00520833
Gmin = 5.21284e-013
vernier = 0.00260417
vernier = 0.00130208
vernier = 0.000651042
vernier = 0.000868055
Gmin = 5.20634e-013
vernier = 0.000434028
Gmin = 0
Gmin stepping failed

Starting source stepping with srcstepmethod=0
Source Step = 3.0303%
Source Step = 18.4186%
Source Step = 18.531%
Source Step = 18.5606%
Source Step = 18.5902%
Source Step = 18.6198%
Source Step = 18.6494%
vernier = 0.00146484
Source Step = 18.6819%
Source Step = 18.7263%
Source Step = 18.7707%
Source Step = 18.8151%
Source Step = 18.8595%
vernier = 0.00219727
Source Step = 18.9061%
Source Step = 18.9727%
Source Step = 19.0393%
Source Step = 19.1059%
Source Step = 19.1724%
Source Step = 19.239%
vernier = 0.0032959
Source Step = 19.3389%
Source Step = 19.4388%
Source Step = 19.5386%
Source Step = 19.6385%
Source Step = 19.7384%
vernier = 0.00494385
Source Step = 19.8832%
Source Step = 20.033%
Source Step = 20.1828%
Source Step = 20.3327%
Source Step = 20.4825%
vernier = 0.00741577
Source Step = 20.6922%
Source Step = 20.9169%
Source Step = 21.1417%
Source Step = 21.3664%
Source Step = 21.5911%
vernier = 0.0111237
Source Step = 21.8945%
Source Step = 22.2315%
Source Step = 22.5686%
Source Step = 22.9057%
Source Step = 23.2428%
vernier = 0.0166855
Source Step = 23.681%
Source Step = 24.1866%
Source Step = 24.6922%
Source Step = 25.1979%
Source Step = 25.7035%
vernier = 0.0250282
Source Step = 26.3355%
Source Step = 26.8474%
Source Step = 26.8901%
Source Step = 26.9375%
Source Step = 26.9849%
Source Step = 27.0323%
Source Step = 27.0797%
vernier = 0.0023464
Source Step = 27.1366%
Source Step = 27.2077%
Source Step = 27.2788%
Source Step = 27.3499%
Source Step = 27.421%
vernier = 0.00351959
Source Step = 27.5028%
Source Step = 27.6094%
Source Step = 27.7161%
Source Step = 27.8227%
Source Step = 27.9294%
vernier = 0.00527939
Source Step = 28.0467%
Source Step = 28.2067%
Source Step = 28.3667%
Source Step = 28.5267%
Source Step = 28.6866%
vernier = 0.00791909
Source Step = 28.8546%
Source Step = 29.0946%
Source Step = 29.3346%
Source Step = 29.5745%
Source Step = 29.8145%
Source Step = 30.0545%
vernier = 0.0118786
Source Step = 30.4144%
Source Step = 30.7744%
Source Step = 31.1344%
Source Step = 31.4943%
Source Step = 31.8543%
vernier = 0.0178179
Source Step = 32.3762%
Source Step = 32.9162%
Source Step = 33.4561%
Source Step = 33.996%
Source Step = 34.536%
vernier = 0.0267269
Source Step = 35.2919%
Source Step = 36.1018%
Source Step = 36.9117%
Source Step = 37.7216%
Source Step = 38.5315%
vernier = 0.0400904
Source Step = 39.6249%
Source Step = 40.8397%
Source Step = 42.0546%
Source Step = 43.2695%
Source Step = 44.4843%
vernier = 0.0601356
Source Step = 46.0636%
Source Step = 47.8859%
Source Step = 49.7082%
Source Step = 51.5305%
Source Step = 53.3528%
vernier = 0.0902034
Source Step = 55.6307%
Source Step = 58.3641%
Source Step = 61.0975%
Source Step = 63.831%
Source Step = 66.5644%
vernier = 0.135305
Source Step = 69.8445%
Source Step = 73.9447%
Source Step = 78.0448%
Source Step = 82.145%
Source Step = 86.2451%
vernier = 0.202958
Source Step = 90.9603%
Source Step = 91.633%
Source Step = 91.7291%
Source Step = 91.8252%
Source Step = 91.9213%
Source Step = 92.0174%
Source Step = 92.1135%
Source Step = 92.2096%
Source Step = 92.3057%
Source Step = 92.4018%
Source Step = 92.4979%
Source Step = 92.594%
Source Step = 92.6901%
Source Step = 92.7862%
Source Step = 92.8823%
Source Step = 92.9784%
Source Step = 93.0745%
Source Step = 93.1705%
Source Step = 93.2666%
Source Step = 93.3627%
Source Step = 93.4588%
Source Step = 93.5549%
Source Step = 93.651%
Source Step = 93.7471%
Source Step = 93.8432%
Source Step = 93.9393%
Source Step = 94.0354%
Source Step = 94.1315%
Source Step = 94.2276%
Source Step = 94.3237%
Source Step = 94.4198%
Source Step = 94.5159%
Source Step = 94.612%
Source Step = 94.7081%
Source Step = 94.8042%
Source Step = 94.9003%
Source Step = 94.9964%
Source Step = 95.0925%
Source Step = 95.1886%
Source Step = 95.2847%
Source Step = 95.3808%
Source Step = 95.4769%
Source Step = 95.573%
Source Step = 95.6691%
Source Step = 95.7652%
Source Step = 95.8613%
Source Step = 95.9574%
Source Step = 96.0535%
Source Step = 96.1496%
Source Step = 96.2457%
Source Step = 96.3418%
Source Step = 96.4379%
Source Step = 96.534%
Source Step = 96.6301%
Source Step = 96.7262%
Source Step = 96.8222%
Source Step = 96.9183%
Source Step = 97.0144%
Source Step = 97.1105%
Source Step = 97.2066%
Source Step = 97.3027%
Source Step = 97.3988%
Source Step = 97.4949%
Source Step = 97.591%
Source Step = 97.6871%
Source Step = 97.7832%
Source Step = 97.8793%
Source Step = 97.9754%
Source Step = 98.0715%
Source Step = 98.1676%
Source Step = 98.2637%
Source Step = 98.3598%
Source Step = 98.4559%
Source Step = 98.552%
Source Step = 98.6481%
Source Step = 98.7442%
Source Step = 98.8403%
Source Step = 98.9364%
Source Step = 99.0325%
Source Step = 99.1286%
Source Step = 99.2247%
Source Step = 99.3208%
Source Step = 99.4169%
Source Step = 99.513%
Source Step = 99.6091%
Source Step = 99.7052%
Source Step = 99.8013%
Source Step = 99.8974%
Source Step = 99.9935%
Source Step = 100%
Source Step = 100%
Source Step = 100%
Source Step = 100%
Source Step = 100%
Source Step = 100%
Source Step = 100%
Source Step = 100%
Source Step = 100%
Source Step = 100%
Source Step = 100%
Source Step = 100%
Source Step = 100%
Source Step = 100%
Source Step = 100%
Source Step = 100%
Source Step = 100%
Source Step = 100%
Source Step = 100%
Source Step = 100%
Source Step = 100%
Source Step = 100%
Source Step = 100%
Source Step = 100%
Source Step = 100%
Source Step = 100%
Source Step = 100%
Source Step = 100%
Source Step = 100%
Source Step = 100%
Source Step = 100%
Source Step = 100%
Source Step = 100%
Source Step = 100%
Source Step = 100%
Source Step = 100%
Source Step = 100%
Source Step = 100%
Source Step = 100%
Source Step = 100%
Source Step = 100%
Source Step = 100%
Source Step = 100%
Source Step = 100%
Source Step = 100%
Source Step = 100%
Source Step = 100%
Source Step = 100%
Source Step = 100%
Source Step = 100%
Source Step = 100%
Source Step = 100%
Source Step = 100%
Source Step = 100%
Source Step = 100%
Source Step = 100%
Source Step = 100%
Source Step = 100%
Source Step = 100%
Source Step = 100%
Source Step = 100%
Source Step = 100%
Source Step = 100%
Source Step = 100%
Source Step = 100%
Source Step = 100%
Source Step = 100%
Source Step = 100%
Source Step = 100%
Source Step = 100%
Source Step = 100%
Source Step = 100%
Source Step = 100%
Source Step = 100%
Source Step = 100%
Source Step = 100%
Source Step = 100%
Source Step = 100%
Source Step = 100%
Source Step = 100%
Source Step = 100%
Source Step = 100%
Source Step = 100%
Source Step = 100%
Source Step = 100%
Source Step = 100%
Source Step = 100%
Source Step = 100%
Source Step = 100%
Source Step = 100%
Source Step = 100%
Source Step = 100%
Source Step = 100%
Source Step = 100%
Source Step = 100%
Source Step = 100%
Source Step = 100%
Source Step = 100%
Source Step = 100%
Source Step = 100%
Source Step = 100%
Source Step = 100%
Source Step = 100%
Source Step = 100%
Source Step = 100%
Source Step = 100%
Source Step = 100%
Source Step = 100%
Source Step = 100%
Source Step = 100%
Source Step = 100%
Source Step = 100%
Source Step = 100%
Source Step = 100%
Source Step = 100%
Source Step = 100%
Source Step = 100%
Source Step = 100%
Source Step = 100%
Source Step = 100%
Source Step = 100%
Source Step = 100%
Source Step = 100%
Source Step = 100%
Source Step = 100%
Source Step = 100%
Source Step = 100%
Source Step = 100%
Source Step = 100%
Source Step = 100%
Source Step = 100%
Source Step = 100%
Source Step = 100%
Source Step = 100%
Source Step = 100%
Source Step = 100%
Source Step = 100%
Source Step = 100%
Source Step = 100%
Source Step = 100%
Source Step = 100%
Source Step = 100%
Source Step = 100%
Source Step = 100%
Source Step = 100%
Source Step = 100%
Source Step = 100%
Source Step = 100%
Source Step = 100%
Source Step = 100%
Source Step = 100%
Source Step = 100%
Source Step = 100%
Source Step = 100%
Source Step = 100%
Source Step = 100%
Source Step = 100%
Source Step = 100%
Source Step = 100%
Source Step = 100%
Source Step = 100%
Source Step = 100%
Source Step = 100%
Source Step = 100%
Source Step = 100%
Source Step = 100%
Source Step = 100%
Source Step = 100%
Source Step = 100%
Source Step = 100%
Source Step = 100%
Source Step = 100%
Source Step = 100%
Source Step = 100%
Source Step = 100%
Source Step = 100%
Source Step = 100%
Source Step = 100%
Source Step = 100%
Source Step = 100%
Source Step = 100%
Source Step = 100%
Source Step = 100%
Source Step = 100%
Source Step = 100%
Source Step = 100%
Source Step = 100%
Source Step = 100%
Source Step = 100%
Source Step = 100%
Source Step = 100%
Source Step = 100%
Source Step = 100%
Source Step = 100%
Source Step = 100%
Source Step = 100%
Source Step = 100%
Source Step = 100%
Source Step = 100%
Source Step = 100%
Source Step = 100%
Source Step = 100%
Source Step = 100%
Source Step = 100%
Source Step = 100%
Source Step = 100%
Source Step = 100%
Source Step = 100%
Source Step = 100%
Source Step = 100%
Source Step = 100%
Source Step = 100%
Source Step = 100%
Source Step = 100%
Source Step = 100%
Source Step = 100%
Source Step = 100%
Source Step = 100%
Source Step = 100%
Source Step = 100%
Source Step = 100%
Source Step = 100%
Source Step = 100%
Source Step = 100%
Source Step = 100%
Source Step = 100%
Source Step = 100%
Source Step = 100%
Source Step = 100%
Source Step = 100%
Source Step = 100%
Source Step = 100%
Source Step = 100%
Source Step = 100%
Source Step = 100%
Source Step = 100%
Source Step = 100%
Source Step = 100%
Source Step = 100%
Source Step = 100%
Source Step = 100%
Source Step = 100%
Source Step = 100%
Source Step = 100%
Source Step = 100%
Source Step = 100%
Source Step = 100%
Source Step = 100%
Source Step = 100%
Source Step = 100%
Source Step = 100%
Source Step = 100%
Source Step = 100%
Source Step = 100%
Source Step = 100%
Source Step = 100%
Source Step = 100%
Source Step = 100%
Source Step = 100%
Source Step = 100%
Source Step = 100%
Source Step = 100%
Source Step = 100%
Source Step = 100%
Source Step = 100%
Source Step = 100%
Source Step = 100%
Source Step = 100%
Source Step = 100%
Source Step = 100%
Source Step = 100%
Source Step = 100%
Source Step = 100%
Source Step = 100%
Source Step = 100%
Source Step = 100%
Source Step = 100%
Source Step = 100%
Source Step = 100%
Source Step = 100%
Source Step = 100%
Source Step = 100%
Source Step = 100%
Source Step = 100%
Source Step = 100%
Source Step = 100%
Source Step = 100%
Source Step = 100%
Source Step = 100%
Source Step = 100%
Source Step = 100%
Source Step = 100%
Source Step = 100%
Source Step = 100%
Source Step = 100%
Source Step = 100%
Source Step = 100%
Source Step = 100%
Source Step = 100%
Source Step = 100%
Source Step = 100%
Source Step = 100%
Source Step = 100%
Source Step = 100%
Source Step = 100%
Source Step = 100%
Source Step = 100%
Source Step = 100%
Source Step = 100%
Source Step = 100%
Source Step = 100%
Source Step = 100%
Source Step = 100%
Source Step = 100%
Source Step = 100%
Source Step = 100%
Source Step = 100%
Source Step = 100%
Source Step = 100%
Source Step = 100%
Source Step = 100%
Source Step = 100%
Source Step = 100%
Source Step = 100%
Source Step = 100%
Source Step = 100%
Source Step = 100%
Source Step = 100%
Source Step = 100%
Source Step = 100%
Source Step = 100%
Source Step = 100%
Source Step = 100%
Source Step = 100%
Source Step = 100%
Source Step = 100%
Source Step = 100%
Source Step = 100%
Source Step = 100%
Source Step = 100%
Source Step = 100%
Source Step = 100%
Source Step = 100%
Source Step = 100%
Source Step = 100%
Source Step = 100%
Source Step = 100%
Source Step = 100%
Source Step = 100%
Source Step = 100%
Source Step = 100%
Source Step = 100%
Source Step = 100%
Source Step = 100%
Source Step = 100%
Source Step = 100%
Source Step = 100%
Source Step = 100%
Source Step = 100%
Source Step = 100%
Source Step = 100%
Source Step = 100%
Source Step = 100%
Source Step = 100%
Source Step = 100%
Source Step = 100%
Source Step = 100%
Source Step = 100%
Source Step = 100%
Source Step = 100%
Source Step = 100%
Source Step = 100%
Source Step = 100%
Source Step = 100%
Source Step = 100%
Source Step = 100%
Source Step = 100%
Source Step = 100%
Source Step = 100%
Source Step = 100%
Source Step = 100%
Source Step = 100%
Source Step = 100%
Source Step = 100%
Source Step = 100%
Source Step = 100%
Source Step = 100%
Source Step = 100%
Source Step = 100%
Source Step = 100%
Source Step = 100%
Source Step = 100%
Source Step = 100%
Source Step = 100%
Source Step = 100%
Source Step = 100%
Source Step = 100%
Source Step = 100%
Source Step = 100%
Source Step = 100%
Source Step = 100%
Source Step = 100%
Source Step = 100%
Source Step = 100%
Source Step = 100%
Source Step = 100%
Source Step = 100%
Source Step = 100%
Source Step = 100%
Source Step = 100%
Source Step = 100%
Source Step = 100%
Source Step = 100%
Source Step = 100%
Source Step = 100%
Source Step = 100%
Source Step = 100%
Source Step = 100%
Source Step = 100%
Source Step = 100%
Source Step = 100%
Source Step = 100%
Source Step = 100%
Source Step = 100%
Source Step = 100%
Source Step = 100%
Source Step = 100%
Source Step = 100%
Source Step = 100%
Source Step = 100%
Source Step = 100%
Source Step = 100%
Source Step = 100%
Source Step = 100%
Source Step = 100%
Source Step = 100%
Source Step = 100%
Source Step = 100%
Source Step = 100%
Source Step = 100%
Source Step = 100%
Source Step = 100%
Source Step = 100%
Source Step = 100%
Source Step = 100%
Source Step = 100%
Source Step = 100%
Source Step = 100%
Source Step = 100%
Source Step = 100%
Source Step = 100%
Source Step = 100%
Source Step = 100%
Source Step = 100%
Source Step = 100%
Source Step = 100%
Source Step = 100%
Source Step = 100%
Source Step = 100%
Source Step = 100%
Source Step = 100%
Source Step = 100%
Source Step = 100%
Source Step = 100%
Source Step = 100%
Source Step = 100%
Source Step = 100%
Source Step = 100%
Source Step = 100%
Source Step = 100%
Source Step = 100%
Source Step = 100%
Source Step = 100%
Source Step = 100%
Source Step = 100%
Source Step = 100%
Source Step = 100%
Source Step = 100%
Source Step = 100%
Source Step = 100%
Source Step = 100%
Source Step = 100%
Source Step = 100%
Source Step = 100%
Source Step = 100%
Source Step = 100%
Source Step = 100%
Source Step = 100%
Source Step = 100%
Source Step = 100%
Source Step = 100%
Source Step = 100%
Source Step = 100%
Source Step = 100%
Source Step = 100%
Source Step = 100%
Source Step = 100%
Source Step = 100%
Source Step = 100%
Source Step = 100%
Source Step = 100%
Source Step = 100%
Source Step = 100%
Source Step = 100%
Source Step = 100%
Source Step = 100%
Source Step = 100%
Source Step = 100%
Source Step = 100%
Source Step = 100%
Source Step = 100%
Source Step = 100%
Source Step = 100%
Source Step = 100%
Source Step = 100%
Source Step = 100%
Source Step = 100%
Source Step = 100%
Source Step = 100%
Source Step = 100%
Source Step = 100%
Source Step = 100%
Source Step = 100%
Source Step = 100%
Source Step = 100%
Source Step = 100%
Source Step = 100%
Source Step = 100%
Source Step = 100%
Source Step = 100%
Source Step = 100%
Source Step = 100%
Source Step = 100%
Source Step = 100%
Source Step = 100%
Source Step = 100%
Source Step = 100%
Source Step = 100%
Source Step = 100%
Source Step = 100%
Source Step = 100%
Source Step = 100%
Source Step = 100%
Source Step = 100%
Source Step = 100%
Source Step = 100%
Source Step = 100%
Source Step = 100%
Source Step = 100%
Source Step = 100%
Source Step = 100%
Source Step = 100%
Source Step = 100%
Source Step = 100%
Source Step = 100%
Source Step = 100%
Source Step = 100%
Source Step = 100%
Source Step = 100%
Source Step = 100%
Source Step = 100%
Source Step = 100%
Source Step = 100%
Source Step = 100%
Source Step = 100%
Source Step = 100%
Source Step = 100%
Source Step = 100%
Source Step = 100%
Source Step = 100%
Source Step = 100%
Source Step = 100%
Source Step = 100%
Source Step = 100%
Source Step = 100%
Source Step = 100%
Source Step = 100%
Source Step = 100%
Source Step = 100%
Source Step = 100%
Source Step = 100%
Source Step = 100%
Source Step = 100%
Source Step = 100%
Source Step = 100%
Source Step = 100%
Source Step = 100%
Source Step = 100%
Source Step = 100%
Source Step = 100%
Source Step = 100%
Source Step = 100%
Source Step = 100%
Source Step = 100%
Source Step = 100%
Source Step = 100%
Source Step = 100%
Source Step = 100%
Source Step = 100%
Source Step = 100%
Source Step = 100%
Source Step = 100%
Source Step = 100%
Source Step = 100%
Source Step = 100%
Source Step = 100%
Source Step = 100%
Source Step = 100%
Source Step = 100%
Source Step = 100%
Source Step = 100%
Source Step = 100%
Source Step = 100%
Source Step = 100%
Source Step = 100%
Source Step = 100%
Source Step = 100%
Source Step = 100%
Source Step = 100%
Source Step = 100%
Source Step = 100%
Source Step = 100%
Source Step = 100%
Source Step = 100%
Source Step = 100%
Source Step = 100%
Source Step = 100%
Source Step = 100%
Source Step = 100%
Source Step = 100%
Source Step = 100%
Source Step = 100%
Source Step = 100%
Source Step = 100%
Source Step = 100%
Source Step = 100%
Source Step = 100%
Source Step = 100%
Source Step = 100%
Source Step = 100%
Source Step = 100%
Source Step = 100%
Source Step = 100%
Source Step = 100%
Source Step = 100%
Source Step = 100%
Source Step = 100%
Source Step = 100%
Source Step = 100%
Source Step = 100%
Source Step = 100%
Source Step = 100%
Source Step = 100%
Source Step = 100%
Source Step = 100%
Source Step = 100%
Source Step = 100%
Source Step = 100%
Source Step = 100%
Source Step = 100%
Source Step = 100%
Source Step = 100%
Source Step = 100%
Source Step = 100%
Source Step = 100%
Source Step = 100%
Source Step = 100%
Source Step = 100%
Source Step = 100%
Source Step = 100%
Trouble finding operating point....skipping operating point for Transient analysis.

Date: Sat Jan 20 22:30:34 2024
Total elapsed time: 10.792 seconds.

tnom = 27
temp = 27
method = modified trap
totiter = 522727
traniter = 0
tranpoints = 1
accept = 1
rejected = 0
matrix size = 12
fillins = 7
solver = Normal

