Circuit: * D:\EE\Semestre 8\Circuitos integrados lineares\Projeto II\LTS\led.asc

WARNING: Node RESET is floating.

WARNING: Less than two connections to node RESET.  This node is used by S1.
Direct Newton iteration failed to find .op point.  (Use ".option noopiter" to skip.)
Starting Gmin stepping
Gmin = 10
Gmin = 1.07374
Gmin = 0.115292
Gmin = 0.0123794
Gmin = 0.00132923
Gmin = 0.000142725
Gmin = 1.5325e-005
Gmin = 1.6455e-006
Gmin = 1.76685e-007
Gmin = 1.89714e-008
Gmin = 2.03704e-009
Gmin = 2.18725e-010
Gmin = 2.34854e-011
Gmin = 2.52173e-012
Gmin = 2.70769e-013
Gmin = 0
Gmin stepping succeeded in finding the operating point.

Heightened Def Con from 0.1 +++++++to 0.1
Heightened Def Con from 0.1 to 0.1

Date: Sun Jan 21 18:43:22 2024
Total elapsed time: 0.228 seconds.

tnom = 27
temp = 27
method = modified trap
totiter = 3642
traniter = 3278
tranpoints = 1373
accept = 1282
rejected = 100
matrix size = 37
fillins = 8
solver = Normal
Matrix Compiler1: 2.45 KB object code size  0.6/0.3/[0.2]
Matrix Compiler2: off  [0.3]/1.1/0.3

