Circuit: * D:\EE\Semestre 8\Circuitos integrados lineares\Projeto II\LTS\led_logic.asc

WARNING: Node RESET is floating.

WARNING: Less than two connections to node RESET.  This node is used by S1.
Direct Newton iteration failed to find .op point.  (Use ".option noopiter" to skip.)
Starting Gmin stepping
Gmin = 10
Gmin = 1.07374
Gmin = 0.115292
Gmin = 0.0123794
Gmin = 0.00132923
Gmin = 0.000142725
Gmin = 1.5325e-005
Gmin = 1.6455e-006
Gmin = 1.76685e-007
Gmin = 1.89714e-008
Gmin = 2.03704e-009
Gmin = 2.18725e-010
Gmin = 2.34854e-011
Gmin = 2.52173e-012
Gmin = 2.70769e-013
Gmin = 0
Gmin stepping succeeded in finding the operating point.


Date: Sun Jan 21 20:49:21 2024
Total elapsed time: 0.210 seconds.

tnom = 27
temp = 27
method = modified trap
totiter = 2937
traniter = 2573
tranpoints = 1175
accept = 1143
rejected = 32
matrix size = 37
fillins = 12
solver = Normal
Matrix Compiler1: 2.68 KB object code size  0.5/0.3/[0.2]
Matrix Compiler2: 3.06 KB object code size  0.4/0.4/[0.3]

