Circuit: * D:\EE\Semestre 8\Circuitos integrados lineares\Projeto II\LTS\ProjII.asc

WARNING: Node RESET is floating.

Direct Newton iteration failed to find .op point.  (Use ".option noopiter" to skip.)
Starting Gmin stepping
Gmin = 10
Gmin = 1.07374
vernier = 0.5
vernier = 0.25
vernier = 0.125
vernier = 0.0625
Gmin = 0.995033
vernier = 0.03125
vernier = 0.015625
vernier = 0.0078125
vernier = 0.00390625
Gmin = 0.999816
vernier = 0.00195313
vernier = 0.000976563
vernier = 0.000488281
Gmin = 0
Gmin stepping failed

Starting source stepping with srcstepmethod=0
Source Step = 3.0303%
Source Step = 13.0682%
Source Step = 14.9621%
Source Step = 16.8561%
Source Step = 18.75%
Source Step = 19.3063%
vernier = 0.000976563
Source Step = 19.3241%
Source Step = 19.3537%
Source Step = 19.3833%
Source Step = 19.4129%
Source Step = 19.4425%
vernier = 0.00146484
Source Step = 19.4854%
Source Step = 19.5298%
Source Step = 19.5742%
Source Step = 19.6185%
Source Step = 19.6629%
vernier = 0.00219727
Source Step = 19.7251%
Source Step = 19.7917%
Source Step = 19.8583%
Source Step = 19.9248%
Source Step = 19.9914%
vernier = 0.0032959
Source Step = 20.0813%
Source Step = 20.1812%
Source Step = 20.2811%
Source Step = 20.3809%
Source Step = 20.4808%
vernier = 0.00494385
Source Step = 20.6106%
Source Step = 20.7605%
Source Step = 20.9103%
Source Step = 21.0601%
Source Step = 21.2099%
vernier = 0.00741577
Source Step = 21.3972%
Source Step = 21.6219%
Source Step = 21.8466%
Source Step = 22.0713%
Source Step = 22.2961%
vernier = 0.0111237
Source Step = 22.5657%
Source Step = 22.9028%
Source Step = 23.2399%
Source Step = 23.577%
Source Step = 23.914%
vernier = 0.0166855
Source Step = 24.3017%
Source Step = 24.8073%
Source Step = 25.3129%
Source Step = 25.8185%
Source Step = 26.3242%
vernier = 0.0250282
Source Step = 26.8803%
Source Step = 27.6388%
Source Step = 28.3972%
Source Step = 29.1556%
Source Step = 29.9141%
vernier = 0.0375423
Source Step = 30.7104%
Source Step = 31.8481%
Source Step = 32.9857%
Source Step = 34.1234%
Source Step = 35.0619%
vernier = 0.0023464
Source Step = 35.1046%
Source Step = 35.1757%
Source Step = 35.2468%
Source Step = 35.3179%
Source Step = 35.389%
vernier = 0.00351959
Source Step = 35.4814%
Source Step = 35.5881%
Source Step = 35.6947%
Source Step = 35.8014%
Source Step = 35.908%
vernier = 0.00527939
Source Step = 36.0414%
Source Step = 36.2013%
Source Step = 36.3613%
Source Step = 36.5213%
Source Step = 36.6813%
vernier = 0.00791909
Source Step = 36.8733%
Source Step = 37.1132%
Source Step = 37.3532%
Source Step = 37.5932%
Source Step = 37.8332%
vernier = 0.0118786
Source Step = 38.1091%
Source Step = 38.4691%
Source Step = 38.829%
Source Step = 39.189%
Source Step = 39.549%
vernier = 0.0178179
Source Step = 39.9449%
Source Step = 40.4849%
Source Step = 41.0248%
Source Step = 41.5647%
Source Step = 42.1047%
vernier = 0.0267269
Source Step = 42.6716%
Source Step = 43.4815%
Source Step = 44.2914%
Source Step = 45.1013%
Source Step = 45.9112%
Source Step = 46.7211%
vernier = 0.0400904
Source Step = 47.936%
Source Step = 49.1509%
Source Step = 50.3657%
Source Step = 51.5806%
Source Step = 52.7954%
vernier = 0.0601356
Source Step = 54.557%
Source Step = 56.3793%
Source Step = 58.2016%
Source Step = 60.0239%
Source Step = 61.8461%
vernier = 0.0902034
Source Step = 64.3973%
Source Step = 67.1308%
Source Step = 69.8642%
Source Step = 72.5977%
Source Step = 75.3311%
vernier = 0.135305
Source Step = 79.0212%
Source Step = 83.1214%
Source Step = 87.2215%
Source Step = 91.3217%
Source Step = 94.7043%
vernier = 0.00845657
Source Step = 94.6595%
Source Step = 94.7235%
Source Step = 94.7876%
Source Step = 94.8517%
Source Step = 94.9157%
Source Step = 94.9798%
Trouble finding operating point....skipping operating point for Transient analysis.

Date: Sun Jan 21 19:27:43 2024
Total elapsed time: 3.322 seconds.

tnom = 27
temp = 27
method = modified trap
totiter = 11153
traniter = 0
tranpoints = 1
accept = 1
rejected = 0
matrix size = 296
fillins = 322
solver = Normal

