Circuit: * D:\EE\Semestre 8\Circuitos integrados lineares\Projeto II\LTS\ripple.asc

WARNING: Less than two connections to node VEE.  This node is used by V4.
Direct Newton iteration failed to find .op point.  (Use ".option noopiter" to skip.)
Starting Gmin stepping
Gmin = 10
Gmin = 1.07374
Gmin = 0.115292
Gmin = 0.0123794
Gmin = 0.00132923
Gmin = 0.000142725
Gmin = 1.5325e-005
Gmin = 1.6455e-006
Gmin = 1.76685e-007
Gmin = 1.89714e-008
Gmin = 2.03704e-009
Gmin = 2.18725e-010
Gmin = 2.34854e-011
Gmin = 2.52173e-012
Gmin = 2.70769e-013
Gmin = 0
Gmin stepping succeeded in finding the operating point.


Date: Sun Jan 21 20:32:14 2024
Total elapsed time: 0.298 seconds.

tnom = 27
temp = 27
method = modified trap
totiter = 20140
traniter = 19748
tranpoints = 6857
accept = 5289
rejected = 1568
matrix size = 33
fillins = 19
solver = Normal
Thread vector: 8.4/5.3[3] 4.2/8.1[1] 1.6/7.8[1] 0.1/1.0[1]  2592/500
Matrix Compiler1: 1.85 KB object code size  1.2/0.7/[0.2]
Matrix Compiler2: 2.70 KB object code size  0.3/0.6/[0.3]

