Circuit: * source TLV1701

Fatal Error: Unknown subcircuit called in:
   x_u1 in+ in- v+ v- out tlv1701
